LAMMPS (23 Jun 2022 - Update 1)
Loaded 1 plugins from /home/ppiaggi/.conda/envs/deepmd-2.1.3/lib/deepmd_lmp
Loaded 0 plugins from
echo both

# Define some variables
variable	temperature equal 1350.
variable	tempDamp equal 0.1 # approx 0.1 ps
variable	pressure equal 1.
variable	pressureDamp equal 1.0
variable	seed equal 74581
variable	out_freq equal 1000
variable	out_freq2 equal 1000

# Setup
units		metal
atom_style	full

# Initial configuration
# Cubic diamond lattice
lattice 	diamond 5.49
Lattice spacing in x,y,z = 5.49 5.49 5.49
region          myreg block 0 3 0 3 0 3
create_box      1 myreg
Created orthogonal box = (0 0 0) to (16.47 16.47 16.47)
create_atoms    1 region myreg
Created 216 atoms
variable 	mass equal 28.0855
mass            1 28.0855

# More setup options
timestep	0.001
neigh_modify    delay 10 every 1
pair_style      deepmd ../frozen_model_1_compressed.pb ../frozen_model_2_compressed.pb ../frozen_model_3_compressed.pb ../frozen_model_4_compressed.pb out_file md.out out_freq 1000
Summary of lammps deepmd module ...
  >>> Info of deepmd-kit:
  installed to:       /home/ppiaggi/.conda/envs/deepmd-2.1.3
  source:             v2.1.3
  source branch:       HEAD
  source commit:      5a32c49e
  source commit at:   2022-07-01 09:52:58 +0800
  surpport model ver.:1.1
  build float prec:   double
  build with tf inc:  /home/ppiaggi/.conda/envs/deepmd-2.1.3/include;/home/ppiaggi/.conda/envs/deepmd-2.1.3/include
  build with tf lib:  /home/ppiaggi/.conda/envs/deepmd-2.1.3/lib/libtensorflow_cc.so;/home/ppiaggi/.conda/envs/deepmd-2.1.3/lib/libtensorflow_framework.so
  set tf intra_op_parallelism_threads: 0
  set tf inter_op_parallelism_threads: 0
  >>> Info of lammps module:
  use deepmd-kit at:  /home/ppiaggi/.conda/envs/deepmd-2.1.3pair_coeff      * *
thermo          1000
thermo_style 	custom step temp pe press lx
restart 	1000 Restart.lmp Restart2.lmp
timer           timeout 01:50:00 every 1000
New timer settings: style=normal  mode=nosync  timeout=01:50:00

# Perform minimization
minimize 1.0e-2 1.0e-3 100 1000

CITE-CITE-CITE-CITE-CITE-CITE-CITE-CITE-CITE-CITE-CITE-CITE-CITE

Your simulation uses code contributions which should be cited:

- USER-DEEPMD package:

@article{Wang_ComputPhysCommun_2018_v228_p178,
  author = {Wang, Han and Zhang, Linfeng and Han, Jiequn and E, Weinan},
  doi = {10.1016/j.cpc.2018.03.016},
  url = {https://doi.org/10.1016/j.cpc.2018.03.016},
  year = 2018,
  month = {jul},
  publisher = {Elsevier {BV}},
  volume = 228,
  journal = {Comput. Phys. Commun.},
  title = {{DeePMD-kit: A deep learning package for many-body potential energy representation and molecular dynamics}},
  pages = {178--184}
}

CITE-CITE-CITE-CITE-CITE-CITE-CITE-CITE-CITE-CITE-CITE-CITE-CITE

Generated 0 of 0 mixed pair_coeff terms from geometric mixing rule
  update every 1 steps, delay 0 steps, check yes
Step          Temp          PotEng         Press            Lx
0   0             -23144.011     -976.54338      16.47
Loop time of 0.0825425 on 8 procs for 1 steps with 216 atoms

Minimization stats:
  Stopping criterion = energy tolerance
  Energy initial, next-to-last, final =
  Force two-norm initial, final = 0.80306351 0.76948815
  Force max component initial, final = 0.091669931 0.070711603
  Final line search alpha, max atom move = 0.03125 0.0022097376
  Iterations, force evaluations = 1 7

reset_timestep 	0

# NVT equilibration

fix             1 all nve
fix             2 all temp/csvr 1350 1350 0.1 74581

velocity        all create 1350 74581 dist gaussian
run             25000
Generated 0 of 0 mixed pair_coeff terms from geometric mixing rule
Step          Temp          PotEng         Press            Lx
0   1350          -23144.043      5154.577       16.47
Averages over the last 13 of 26 rows, steps 13000 to 25000:
Temp PotEng Press Lx
1361.23 -23101.8 20580.5 16.47
Loop time of 19.435 on 8 procs for 25000 steps with 216 atoms

unfix           1
unfix           2

# NPT equilibration
# The symmetry of the crystal structure allows us to use an isotropic barostat

fix             1 all nph iso 1 1 1
fix             2 all temp/csvr 1350 1350 0.1 74581

velocity        all create 1350 74581 dist gaussian
run             25000
Generated 0 of 0 mixed pair_coeff terms from geometric mixing rule
Step          Temp          PotEng         Press            Lx
25000   1350          -23100.312      20215.236      16.47
Averages over the last 13 of 26 rows, steps 38000 to 50000:
Temp PotEng Press Lx
1371.06 -23101.7 2389.32 16.555
Loop time of 19.5754 on 8 procs for 25000 steps with 216 atoms

unfix           1
unfix           2

# Dump trajectories in dump and dcd format
dump            myDump all atom 1000 si.lammps-dump-text
dump            myDcdDump all dcd 1000 out.dcd

# NPT + enhanced sampling

reset_timestep  0

fix             1 all plumed plumedfile plumed.dat outfile log.plumed
fix             2 all nph iso 1 1 1
fix             3 all temp/csvr 1350 1350 0.1 74581
fix		4 all momentum 10000 linear 1 1 1 angular

run             100000000
Generated 0 of 0 mixed pair_coeff terms from geometric mixing rule
Step          Temp          PotEng         Press            Lx
0   1396.3523     -23101.342      10032.482      16.520628
Averages over the last 2775 of 5549 rows, steps 2774000 to 5548000:
Temp PotEng Press Lx
1355.54 -23020.9 71.0868 16.3361
Loop time of 6560.39 on 8 procs for 5548000 steps with 216 atoms

unfix		4
unfix		3
unfix		2
unfix		1

write_data	data.final
System init for write_data ...
Generated 0 of 0 mixed pair_coeff terms from geometric mixing rule
