LAMMPS (23 Jun 2022 - Update 1)
Loaded 1 plugins from /home/ppiaggi/.conda/envs/deepmd-2.1.3/lib/deepmd_lmp
Loaded 1 plugins from /home/ppiaggi/.conda/envs/deepmd-2.1.3/lib/deepmd_lmp
Loaded 0 plugins from
echo both

variable	temperature equal 300.0
variable	tempDamp equal 0.1
variable        pressure equal 1.
variable        pressureDamp equal 1.0 # This is 1 ps
variable	out_freq equal 1000

variable        seed equal 745823

units		metal
atom_style	atomic

# Initial configuration
# Cubic diamond lattice
lattice 	diamond 5.49
Lattice spacing in x,y,z = 5.49 5.49 5.49
region          myreg block 0 2 0 2 0 2
create_box      1 myreg
Created orthogonal box = (0 0 0) to (10.98 10.98 10.98)
create_atoms    1 region myreg
Created 64 atoms
variable 	mass equal 28.0855
mass            1 28.0855

timestep	0.001
neigh_modify    delay 10 every 1
pair_style      deepmd ../frozen_model_1_compressed.pb ../frozen_model_2_compressed.pb ../frozen_model_3_compressed.pb ../frozen_model_4_compressed.pb out_file md.out out_freq 1000
Summary of lammps deepmd module ...
  >>> Info of deepmd-kit:
  installed to:       /home/ppiaggi/.conda/envs/deepmd-2.1.3
  source:             v2.1.3
  source branch:       HEAD
  source commit:      5a32c49e
  source commit at:   2022-07-01 09:52:58 +0800
  surpport model ver.:1.1
  build float prec:   double
  build with tf inc:  /home/ppiaggi/.conda/envs/deepmd-2.1.3/include;/home/ppiaggi/.conda/envs/deepmd-2.1.3/include
  build with tf lib:  /home/ppiaggi/.conda/envs/deepmd-2.1.3/lib/libtensorflow_cc.so;/home/ppiaggi/.conda/envs/deepmd-2.1.3/lib/libtensorflow_framework.so
  set tf intra_op_parallelism_threads: 0
  set tf inter_op_parallelism_threads: 0
  >>> Info of lammps module:
  use deepmd-kit at:  /home/ppiaggi/.conda/envs/deepmd-2.1.3pair_coeff      * *
thermo          1000
thermo_style 	custom step temp pe etotal epair emol press lx ly lz vol
restart 	1000 restart.lmp restart2.lmp

# Equilibrate

fix             1 all nph iso 1 1 1
fix             2 all temp/csvr 300 300 0.1 745823
fix             3 all momentum 10000 linear 1 1 1 rescale

velocity 	all create 300 745823 dist gaussian

run             100000 upto # 100 ps

CITE-CITE-CITE-CITE-CITE-CITE-CITE-CITE-CITE-CITE-CITE-CITE-CITE

Your simulation uses code contributions which should be cited:

- USER-DEEPMD package:

@article{Wang_ComputPhysCommun_2018_v228_p178,
  author = {Wang, Han and Zhang, Linfeng and Han, Jiequn and E, Weinan},
  doi = {10.1016/j.cpc.2018.03.016},
  url = {https://doi.org/10.1016/j.cpc.2018.03.016},
  year = 2018,
  month = {jul},
  publisher = {Elsevier {BV}},
  volume = 228,
  journal = {Comput. Phys. Commun.},
  title = {{DeePMD-kit: A deep learning package for many-body potential energy representation and molecular dynamics}},
  pages = {178--184}
}

CITE-CITE-CITE-CITE-CITE-CITE-CITE-CITE-CITE-CITE-CITE-CITE-CITE

Generated 0 of 0 mixed pair_coeff terms from geometric mixing rule
  update every 1 steps, delay 10 steps, check yes
Step          Temp          PotEng         TotEng         E_pair         E_mol          Press            Lx             Ly             Lz           Volume
0   300           -6857.3383     -6854.8953     -6857.3383      0              2439.1793      10.98          10.98          10.98          1323.7532
Averages over the last 51 of 101 rows, steps 50000 to 100000:
Temp PotEng TotEng E_pair E_mol Press Lx Ly Lz Volume
296.721 -6854.81 -6852.39 -6854.81 0 -431.356 10.991 10.991 10.991 1327.75
Loop time of 76.3321 on 8 procs for 100000 steps with 64 atoms

unfix		1
unfix		2
unfix		3

reset_timestep	0

dump            myDump all atom 1000 si.lammps-dump-text

timer           timeout 00:55:00 every 1000
New timer settings: style=normal  mode=nosync  timeout=00:55:00

fix             thermo_print all print 1000 "$(step) $(enthalpy) $(vol)" file thermo.txt screen no title "#step enthalpy vol"
fix             1 all nph iso 1 1 1
fix             2 all temp/csvr 300 300 0.1 745823
fix             3 all momentum 10000 linear 1 1 1 rescale

run             100000 upto # 100 ps
Generated 0 of 0 mixed pair_coeff terms from geometric mixing rule
Step          Temp          PotEng         TotEng         E_pair         E_mol          Press            Lx             Ly             Lz           Volume
0   324.83072     -6854.2799     -6851.6347     -6854.2799      0              3277.3125      10.980148      10.980148      10.980148      1323.8066
Averages over the last 51 of 101 rows, steps 50000 to 100000:
Temp PotEng TotEng E_pair E_mol Press Lx Ly Lz Volume
297.368 -6854.81 -6852.39 -6854.81 0 -876.034 10.9915 10.9915 10.9915 1327.93
Loop time of 76.6504 on 8 procs for 100000 steps with 64 atoms

write_data	data.final
System init for write_data ...
Generated 0 of 0 mixed pair_coeff terms from geometric mixing rule

write_restart   restart.lmp
System init for write_restart ...
Generated 0 of 0 mixed pair_coeff terms from geometric mixing rule
