LAMMPS (23 Jun 2022)
echo both

# Define some variables
variable	temperature equal 1700.
variable	tempDamp equal 0.1 # approx 0.1 ps
variable	pressure equal -10000.
variable	pressureDamp equal 1.0
variable	seed equal 74581

# Setup
units		metal
atom_style	full

# Initial configuration
# Cubic diamond lattice
lattice 	diamond 5.4307
Lattice spacing in x,y,z = 5.4307 5.4307 5.4307
region          myreg block 0 2 0 2 0 2
create_box      1 myreg
Created orthogonal box = (0 0 0) to (10.8614 10.8614 10.8614)
create_atoms 	1 random 64 12345 myreg overlap 0.4 maxtry 500
Created 64 atoms
variable 	mass equal 28.0855
mass            1 28.0855

# More setup options
variable	out_freq equal 500
variable	out_freq2 equal 5000
neigh_modify    delay 10 every 1
pair_style 	sw
pair_coeff 	* * Si.sw Si
Reading sw potential file Si.sw with DATE: 2007-06-11
timestep	0.002
thermo          500
thermo_style 	custom step temp pe press lx
restart 	500 Restart.lmp Restart2.lmp

# Perform minimization
minimize 1.0e-2 1.0e-3 100 1000
  update every 1 steps, delay 0 steps, check yes
Step          Temp          PotEng         Press            Lx
0   0             -169.1764       198360.21      10.8614
Loop time of 0.00364448 on 1 procs for 10 steps with 64 atoms

Minimization stats:
  Stopping criterion = energy tolerance
  Energy initial, next-to-last, final =
  Force two-norm initial, final = 47.138491 4.5033468
  Force max component initial, final = 13.139347 0.9964586
  Final line search alpha, max atom move = 0.082494863 0.082202715
  Iterations, force evaluations = 10 10

# NVT equilibration

fix             1 all nve
fix             2 all temp/csvr 1700 1700 0.1 74581

velocity        all create 1700 74581 dist gaussian
run             25000
Step          Temp          PotEng         Press            Lx
10   1700          -236.97934     -64396.931      10.8614
Averages over the last 26 of 52 rows, steps 13000 to 25010:
Temp PotEng Press Lx
1753.56 -240.04 -29687.7 10.8614
Loop time of 5.81466 on 1 procs for 25000 steps with 64 atoms

unfix           1
unfix           2

# NPT equilibration
fix             1 all nph iso -10000 -10000 1
fix             2 all temp/csvr 1700 1700 0.1 74581

velocity        all create 1700 74581 dist gaussian
run             50000
Step          Temp          PotEng         Press            Lx
25010   1700          -239.46699     -23697.914      10.8614
Averages over the last 51 of 102 rows, steps 50500 to 75010:
Temp PotEng Press Lx
1688.34 -240.651 -8303.03 10.7294
Loop time of 13.5444 on 1 procs for 50000 steps with 64 atoms

unfix           1
unfix           2

reset_timestep 	0

# Dump trajectories in dump format
dump            myDump all atom 5000 si.lammps-dump-text

# NPT production

fix             1 all nph iso -10000 -10000 1
fix             2 all temp/csvr 1700 1700 0.1 74581

velocity        all create 1700 74581 dist gaussian
run             500000
Step          Temp          PotEng         Press            Lx
0   1700          -241.50075      10497.414      10.777356
Averages over the last 501 of 1001 rows, steps 250000 to 500000:
Temp PotEng Press Lx
1710.45 -240.873 -11461.8 10.7068
Loop time of 137.04 on 1 procs for 500000 steps with 64 atoms

unfix           1
unfix           2

write_data	data.final
System init for write_data ...
