/scratch/gpfs/ppiaggi/Simulations/TutorialWorkshop/Iteration3/run-simulations/liquid-64-1700K-1bar
della-l07g3
Thu May 11 09:39:15 EDT 2023
LAMMPS (23 Jun 2022 - Update 1)
Loaded 1 plugins from /home/ppiaggi/.conda/envs/deepmd-2.1.3/lib/deepmd_lmp
Loaded 1 plugins from /home/ppiaggi/.conda/envs/deepmd-2.1.3/lib/deepmd_lmp
Loaded 0 plugins from

variable	temperature equal 1700.0
variable	tempDamp equal 0.1
variable        pressure equal 1.
variable        pressureDamp equal 1.0 # This is 1 ps
variable	out_freq equal 10

variable        seed equal 745823

units		metal
atom_style	atomic
read_data       si-64-liquid.lammps-data
Reading data file ...
  orthogonal box = (0.12214326 0.12214326 0.12214326) to (10.739257 10.739257 10.739257)
  reading atoms ...
  64 atoms

timestep	0.001
neigh_modify    delay 10 every 1
pair_style      deepmd ../frozen_model_1_compressed.pb ../frozen_model_2_compressed.pb ../frozen_model_3_compressed.pb ../frozen_model_4_compressed.pb out_file md.out out_freq 10
Summary of lammps deepmd module ...
  >>> Info of deepmd-kit:
  installed to:       /home/ppiaggi/.conda/envs/deepmd-2.1.3
  source:             v2.1.3
  source branch:       HEAD
  source commit:      5a32c49e
  source commit at:   2022-07-01 09:52:58 +0800
  surpport model ver.:1.1
  build float prec:   double
  build with tf inc:  /home/ppiaggi/.conda/envs/deepmd-2.1.3/include;/home/ppiaggi/.conda/envs/deepmd-2.1.3/include
  build with tf lib:  /home/ppiaggi/.conda/envs/deepmd-2.1.3/lib/libtensorflow_cc.so;/home/ppiaggi/.conda/envs/deepmd-2.1.3/lib/libtensorflow_framework.so
  set tf intra_op_parallelism_threads: 925972789
  set tf inter_op_parallelism_threads: 858927671
  >>> Info of lammps module:
DeePMD-kit WARNING: Environmental variable TF_INTRA_OP_PARALLELISM_THREADS is not set. Tune TF_INTRA_OP_PARALLELISM_THREADS for the best performance.
DeePMD-kit WARNING: Environmental variable TF_INTER_OP_PARALLELISM_THREADS is not set. Tune TF_INTER_OP_PARALLELISM_THREADS for the best performance.
2023-05-11 09:39:21.247738: I tensorflow/core/platform/cpu_feature_guard.cc:193] This TensorFlow binary is optimized with oneAPI Deep Neural Network Library (oneDNN) to use the following CPU instructions in performance-critical operations:  SSE4.1 SSE4.2 AVX AVX2 FMA
To enable them in other operations, rebuild TensorFlow with the appropriate compiler flags.
2023-05-11 09:39:25.854752: I tensorflow/core/common_runtime/gpu/gpu_device.cc:1532] Created device /job:localhost/replica:0/task:0/device:GPU:0 with 73105 MB memory:  -> device: 0, name: NVIDIA A100-SXM4-80GB, pci bus id: 0000:c1:00.0, compute capability: 8.0
2023-05-11 09:39:25.918070: I tensorflow/core/common_runtime/process_util.cc:146] Creating new thread pool with default inter op setting: 2. Tune using inter_op_parallelism_threads for best performance.
2023-05-11 09:39:25.938652: I tensorflow/compiler/mlir/mlir_graph_optimization_pass.cc:354] MLIR V1 optimization pass is not enabled
DeePMD-kit WARNING: Environmental variable TF_INTRA_OP_PARALLELISM_THREADS is not set. Tune TF_INTRA_OP_PARALLELISM_THREADS for the best performance.
DeePMD-kit WARNING: Environmental variable TF_INTER_OP_PARALLELISM_THREADS is not set. Tune TF_INTER_OP_PARALLELISM_THREADS for the best performance.
2023-05-11 09:39:26.227387: I tensorflow/core/common_runtime/gpu/gpu_device.cc:1532] Created device /job:localhost/replica:0/task:0/device:GPU:0 with 73105 MB memory:  -> device: 0, name: NVIDIA A100-SXM4-80GB, pci bus id: 0000:c1:00.0, compute capability: 8.0
2023-05-11 09:39:26.233117: I tensorflow/core/common_runtime/gpu/gpu_device.cc:1532] Created device /job:localhost/replica:0/task:0/device:GPU:0 with 73105 MB memory:  -> device: 0, name: NVIDIA A100-SXM4-80GB, pci bus id: 0000:c1:00.0, compute capability: 8.0
2023-05-11 09:39:26.238560: I tensorflow/core/common_runtime/gpu/gpu_device.cc:1532] Created device /job:localhost/replica:0/task:0/device:GPU:0 with 73105 MB memory:  -> device: 0, name: NVIDIA A100-SXM4-80GB, pci bus id: 0000:c1:00.0, compute capability: 8.0
2023-05-11 09:39:26.243378: I tensorflow/core/common_runtime/gpu/gpu_device.cc:1532] Created device /job:localhost/replica:0/task:0/device:GPU:0 with 73105 MB memory:  -> device: 0, name: NVIDIA A100-SXM4-80GB, pci bus id: 0000:c1:00.0, compute capability: 8.0
  use deepmd-kit at:  /home/ppiaggi/.conda/envs/deepmd-2.1.3  >>> Info of model(s):
  rcut in model:      6
  ntypes in model:    1
pair_coeff      * *
thermo          10
thermo_style 	custom step temp pe etotal epair emol press lx ly lz vol
restart 	10 restart.lmp restart2.lmp

dump            myDump all atom 10 si.lammps-dump-text

timer           timeout 00:55:00 every 1000
New timer settings: style=normal  mode=nosync  timeout=00:55:00

fix             thermo_print all print 10 "$(step) $(enthalpy) $(vol)" file thermo.txt screen no title "#step enthalpy vol"
fix             1 all nph iso 1 1 1
fix             2 all temp/csvr 1700 1700 0.1 745823
fix             3 all momentum 10000 linear 1 1 1 rescale

velocity 	all create 1700 745823 dist gaussian

run             1000 upto # 1 ps

CITE-CITE-CITE-CITE-CITE-CITE-CITE-CITE-CITE-CITE-CITE-CITE-CITE

Your simulation uses code contributions which should be cited:
- USER-DEEPMD package:
The log file lists these citations in BibTeX format.

CITE-CITE-CITE-CITE-CITE-CITE-CITE-CITE-CITE-CITE-CITE-CITE-CITE

Generated 0 of 0 mixed pair_coeff terms from geometric mixing rule
  update every 1 steps, delay 10 steps, check yes
Setting up Verlet run ...
  Unit style    : metal
  Current step  : 0
  Time step     : 0.001
  Walltime left : 0:54:59.95
Step          Temp          PotEng         TotEng         E_pair         E_mol          Press            Lx             Ly             Lz           Volume
0   1700          -6822.9463     -6809.1025     -6822.9463      0             -19583.406      10.617113      10.617113      10.617113      1196.7939
Averages over the last 51 of 101 rows, steps 500 to 1000:
Temp PotEng TotEng E_pair E_mol Press Lx Ly Lz Volume
1785.5 -6816.87 -6802.33 -6816.87 0 -615.967 10.8745 10.8745 10.8745 1286.03
Loop time of 1.24186 on 8 procs for 1000 steps with 64 atoms

write_data	data.final
System init for write_data ...
Generated 0 of 0 mixed pair_coeff terms from geometric mixing rule

write_restart   restart.lmp
System init for write_restart ...
Generated 0 of 0 mixed pair_coeff terms from geometric mixing rule
Thu May 11 09:39:33 EDT 2023
