LAMMPS (23 Jun 2022 - Update 1)
Loaded 1 plugins from /home/ppiaggi/.conda/envs/deepmd-2.1.3/lib/deepmd_lmp
Loaded 1 plugins from /home/ppiaggi/.conda/envs/deepmd-2.1.3/lib/deepmd_lmp
Loaded 0 plugins from
echo both

variable	temperature equal 1700.0
variable	tempDamp equal 0.1
variable        pressure equal 10000.
variable        pressureDamp equal 1.0 # This is 1 ps
variable	out_freq equal 1000

variable        seed equal 745823

units		metal
atom_style	atomic
read_data       si-64-liquid.lammps-data
Reading data file ...
  orthogonal box = (0.17190854 0.17190854 0.17190854) to (10.689491 10.689491 10.689491)
  reading atoms ...
  64 atoms
  reading velocities ...
  64 velocities

timestep	0.001
neigh_modify    delay 10 every 1
pair_style      deepmd ../frozen_model_1_compressed.pb ../frozen_model_2_compressed.pb ../frozen_model_3_compressed.pb ../frozen_model_4_compressed.pb out_file md.out out_freq 1000
Summary of lammps deepmd module ...
  >>> Info of deepmd-kit:
  installed to:       /home/ppiaggi/.conda/envs/deepmd-2.1.3
  source:             v2.1.3
  source branch:       HEAD
  source commit:      5a32c49e
  source commit at:   2022-07-01 09:52:58 +0800
  surpport model ver.:1.1
  build float prec:   double
  build with tf inc:  /home/ppiaggi/.conda/envs/deepmd-2.1.3/include;/home/ppiaggi/.conda/envs/deepmd-2.1.3/include
  build with tf lib:  /home/ppiaggi/.conda/envs/deepmd-2.1.3/lib/libtensorflow_cc.so;/home/ppiaggi/.conda/envs/deepmd-2.1.3/lib/libtensorflow_framework.so
  set tf intra_op_parallelism_threads: 0
  set tf inter_op_parallelism_threads: 0
  >>> Info of lammps module:
  use deepmd-kit at:  /home/ppiaggi/.conda/envs/deepmd-2.1.3pair_coeff      * *
thermo          1000
thermo_style 	custom step temp pe etotal epair emol press lx ly lz vol
restart 	1000 restart.lmp restart2.lmp

dump            myDump all atom 1000 si.lammps-dump-text

timer           timeout 00:55:00 every 1000
New timer settings: style=normal  mode=nosync  timeout=00:55:00

fix             thermo_print all print 1000 "$(step) $(enthalpy) $(vol)" file thermo.txt screen no title "#step enthalpy vol"
fix             1 all nph iso 10000 10000 1
fix             2 all temp/csvr 1700 1700 0.1 745823
fix             3 all momentum 10000 linear 1 1 1 rescale

velocity 	all create 1700 745823 dist gaussian

run             1000000 upto # 1 ns

CITE-CITE-CITE-CITE-CITE-CITE-CITE-CITE-CITE-CITE-CITE-CITE-CITE

Your simulation uses code contributions which should be cited:

- USER-DEEPMD package:

@article{Wang_ComputPhysCommun_2018_v228_p178,
  author = {Wang, Han and Zhang, Linfeng and Han, Jiequn and E, Weinan},
  doi = {10.1016/j.cpc.2018.03.016},
  url = {https://doi.org/10.1016/j.cpc.2018.03.016},
  year = 2018,
  month = {jul},
  publisher = {Elsevier {BV}},
  volume = 228,
  journal = {Comput. Phys. Commun.},
  title = {{DeePMD-kit: A deep learning package for many-body potential energy representation and molecular dynamics}},
  pages = {178--184}
}

CITE-CITE-CITE-CITE-CITE-CITE-CITE-CITE-CITE-CITE-CITE-CITE-CITE

Generated 0 of 0 mixed pair_coeff terms from geometric mixing rule
  update every 1 steps, delay 10 steps, check yes
Step          Temp          PotEng         TotEng         E_pair         E_mol          Press            Lx             Ly             Lz           Volume
0   1700          -6816.2592     -6802.4155     -6816.2592      0              59760.07       10.517583      10.517583      10.517583      1163.4503
Averages over the last 501 of 1001 rows, steps 500000 to 1000000:
Temp PotEng TotEng E_pair E_mol Press Lx Ly Lz Volume
1712.47 -6816.01 -6802.06 -6816.01 0 10375.6 10.7523 10.7523 10.7523 1243.37
Loop time of 834.544 on 8 procs for 1000000 steps with 64 atoms

write_data	data.final
System init for write_data ...
Generated 0 of 0 mixed pair_coeff terms from geometric mixing rule

write_restart   restart.lmp
System init for write_restart ...
Generated 0 of 0 mixed pair_coeff terms from geometric mixing rule
